<routes>
    <vType id="car" accel="2.0" decel="4.5" maxSpeed="30" length="5" />

    <route id="r0" edges="A0B0" />

    <vehicle id="leader" type="car" route="r0" depart="0" />
    <vehicle id="follower1" type="car" route="r0" depart="1" />
    <vehicle id="follower2" type="car" route="r0" depart="2" />
</routes>
